# [Alexander Molchanov](https://www.youtube.com/@alexandermolchanov2171/playlists)
## [Специальные главы теплофизики и механики сплошной среды](https://www.youtube.com/playlist?list=PLPsx-wWDSTVp-8jnKKMIDfslShxTiTAar)
### [ANSYS CFX. Расчет сверхзвуковой турбулентной струи, истекающей в окружающее пространство.  Урок 4](https://www.youtube.com/watch?v=M2y0B2A87Kg&amp;list=PLPsx-wWDSTVp-8jnKKMIDfslShxTiTAar&amp;index=16&amp;pp=iAQB)