# [Alexander Molchanov](https://www.youtube.com/@alexandermolchanov2171/playlists)
## [Специальные главы теплофизики и механики сплошной среды](https://www.youtube.com/playlist?list=PLPsx-wWDSTVp-8jnKKMIDfslShxTiTAar)
### [ANSYS CFX. Расчет сверхзвуковой турбулентной струи, истекающей в окружающее пространство.  Урок 3](https://www.youtube.com/watch?v=5WXP3WKRep4&amp;list=PLPsx-wWDSTVp-8jnKKMIDfslShxTiTAar&amp;index=15&amp;pp=iAQB)