# [Alexander Molchanov](https://www.youtube.com/@alexandermolchanov2171/playlists)
## [ANSYS CFX. Расчет течения в сверхзвуковом сопле](https://www.youtube.com/playlist?list=PLPsx-wWDSTVrIMYcmn9CIOzRrX_oufDPA)
### [ANSYS CFX. Calculation of the flow in a supersonic nozzle. Part 2.](https://www.youtube.com/watch?v=ByCoRZ8k5l8&amp;list=PLPsx-wWDSTVrIMYcmn9CIOzRrX_oufDPA&amp;index=2&amp;pp=iAQB)