# [Alexander Molchanov](https://www.youtube.com/@alexandermolchanov2171/playlists)
## [Специальные главы теплофизики и механики сплошной среды](https://www.youtube.com/playlist?list=PLPsx-wWDSTVp-8jnKKMIDfslShxTiTAar)
### [ANSYS CFX. Calculation of the swirling flow between 2 cylinders. Lesson 1](https://www.youtube.com/watch?v=MJpa9ujSa7o&amp;list=PLPsx-wWDSTVp-8jnKKMIDfslShxTiTAar&amp;index=4&amp;pp=iAQB)