# [Alexander Molchanov](https://www.youtube.com/@alexandermolchanov2171/playlists)
## [Расчет обтекания передней критической точки спускаемого аппарата с использованием ANSYS](https://www.youtube.com/playlist?list=PLPsx-wWDSTVrxo5KbdPVlCPLs0wQyz5xz)
### [Обтекание сферического тела химически активным высокоскоростным потоком. ANSYS CFX. Урок 1](https://www.youtube.com/watch?v=e4RA0849JnE&amp;list=PLPsx-wWDSTVrxo5KbdPVlCPLs0wQyz5xz&amp;index=1&amp;pp=iAQB)