# [Alexander Molchanov](https://www.youtube.com/@alexandermolchanov2171/playlists)
## [ANSYS CFX. Расчет течения в сверхзвуковом сопле](https://www.youtube.com/playlist?list=PLPsx-wWDSTVrIMYcmn9CIOzRrX_oufDPA)
### [ANSYS CFX. Расчет течения в сверхзвуковом сопле. Часть 3.2](https://www.youtube.com/watch?v=oBOK0wLY5SQ&amp;list=PLPsx-wWDSTVrIMYcmn9CIOzRrX_oufDPA&amp;index=4&amp;pp=iAQB)