# [Alexander Molchanov](https://www.youtube.com/@alexandermolchanov2171/playlists)
## [ANSYS CFX. Расчет течения в сверхзвуковом сопле](https://www.youtube.com/playlist?list=PLPsx-wWDSTVrIMYcmn9CIOzRrX_oufDPA)
### [ANSYS CFX. Расчет течения в сверхзвуковом сопле. ICEM CFD](https://www.youtube.com/watch?v=hy0WPbb6H5I&amp;list=PLPsx-wWDSTVrIMYcmn9CIOzRrX_oufDPA&amp;index=5&amp;pp=iAQB)