# [Alexander Molchanov](https://www.youtube.com/@alexandermolchanov2171/playlists)
## [ANSYS CFX. Расчет течения в сверхзвуковом сопле](https://www.youtube.com/playlist?list=PLPsx-wWDSTVrIMYcmn9CIOzRrX_oufDPA)
### [ANSYS CFX. Расчет течения в сверхзвуковом сопле. Часть 3.1](https://www.youtube.com/watch?v=t8U-XOUQqlM&amp;list=PLPsx-wWDSTVrIMYcmn9CIOzRrX_oufDPA&amp;index=3&amp;pp=iAQB)