### [Специальные главы теплофизики и механики сплошной среды. Часть 1](https://www.youtube.com/watch?v=34wg6Y7JnCM&amp;list=PLPsx-wWDSTVp-8jnKKMIDfslShxTiTAar&amp;index=1&amp;pp=iAQB)
### [Ansys Fluent. Calculation of the flow between two rotating rings. Part 1.](https://www.youtube.com/watch?v=YCZq4flRiM4&amp;list=PLPsx-wWDSTVp-8jnKKMIDfslShxTiTAar&amp;index=2&amp;pp=iAQB)
### [Ansys Fluent. Calculation of the flow between two rotating rings. Part 2.](https://www.youtube.com/watch?v=pyBOxRPm-PI&amp;list=PLPsx-wWDSTVp-8jnKKMIDfslShxTiTAar&amp;index=3&amp;pp=iAQB)
### [ANSYS CFX. Calculation of the swirling flow between 2 cylinders. Lesson 1](https://www.youtube.com/watch?v=MJpa9ujSa7o&amp;list=PLPsx-wWDSTVp-8jnKKMIDfslShxTiTAar&amp;index=4&amp;pp=iAQB)
### [ANSYS CFX. Calculation of the swirling flow between 2 cylinders. Lesson 2](https://www.youtube.com/watch?v=sqdXm8_E77o&amp;list=PLPsx-wWDSTVp-8jnKKMIDfslShxTiTAar&amp;index=5&amp;pp=iAQB)
### [ANSYS Fluent. Calculation of the airfoil flow. Laminar-turbulent transition. Lesson 1](https://www.youtube.com/watch?v=nvednjDtMRg&amp;list=PLPsx-wWDSTVp-8jnKKMIDfslShxTiTAar&amp;index=6&amp;pp=iAQB)
### [ANSYS Fluent. Calculation of the airfoil flow. Laminar-turbulent transition. Lesson 2](https://www.youtube.com/watch?v=PcCjCugpqlY&amp;list=PLPsx-wWDSTVp-8jnKKMIDfslShxTiTAar&amp;index=7&amp;pp=iAQB)
### [Thermally Nonequilibrium Flows. Lesson 1](https://www.youtube.com/watch?v=WIH5D7TY7Nw&amp;list=PLPsx-wWDSTVp-8jnKKMIDfslShxTiTAar&amp;index=8&amp;pp=iAQB)
### [Thermally Nonequilibrium Flows. Lesson 2](https://www.youtube.com/watch?v=klTFF3S2x64&amp;list=PLPsx-wWDSTVp-8jnKKMIDfslShxTiTAar&amp;index=9&amp;pp=iAQB)
### [Thermally Nonequilibrium Flows. Lesson 3](https://www.youtube.com/watch?v=rm85qdueh0k&amp;list=PLPsx-wWDSTVp-8jnKKMIDfslShxTiTAar&amp;index=10&amp;pp=iAQB)
### [Thermally Nonequilibrium Flows. Lesson 4. Another form of the equation of vibrational energy](https://www.youtube.com/watch?v=QF0HJZ-Mt6M&amp;list=PLPsx-wWDSTVp-8jnKKMIDfslShxTiTAar&amp;index=11&amp;pp=iAQB)
### [Thermally Nonequilibrium Flows. Lesson 5](https://www.youtube.com/watch?v=pgwjiT7j1ts&amp;list=PLPsx-wWDSTVp-8jnKKMIDfslShxTiTAar&amp;index=12&amp;pp=iAQB)
### [ANSYS CFX. Расчет сверхзвуковой турбулентной струи, истекающей в окружающее пространство.  Урок 1](https://www.youtube.com/watch?v=efyMUzzjatc&amp;list=PLPsx-wWDSTVp-8jnKKMIDfslShxTiTAar&amp;index=13&amp;pp=iAQB)
### [ANSYS CFX. Расчет сверхзвуковой турбулентной струи, истекающей в окружающее пространство.  Урок 2](https://www.youtube.com/watch?v=ExNyDsra0Is&amp;list=PLPsx-wWDSTVp-8jnKKMIDfslShxTiTAar&amp;index=14&amp;pp=iAQB)
### [ANSYS CFX. Расчет сверхзвуковой турбулентной струи, истекающей в окружающее пространство.  Урок 3](https://www.youtube.com/watch?v=5WXP3WKRep4&amp;list=PLPsx-wWDSTVp-8jnKKMIDfslShxTiTAar&amp;index=15&amp;pp=iAQB)
### [ANSYS CFX. Расчет сверхзвуковой турбулентной струи, истекающей в окружающее пространство.  Урок 4](https://www.youtube.com/watch?v=M2y0B2A87Kg&amp;list=PLPsx-wWDSTVp-8jnKKMIDfslShxTiTAar&amp;index=16&amp;pp=iAQB)
### [Расчет сверхзвуковой турбулентной струи, истекающей в окружающее пространство. Урок 5](https://www.youtube.com/watch?v=FOtxAe3m2U4&amp;list=PLPsx-wWDSTVp-8jnKKMIDfslShxTiTAar&amp;index=17&amp;pp=iAQB)
### [Расчет сверхзвуковой турбулентной струи, истекающей в окружающее пространство. Урок 6](https://www.youtube.com/watch?v=n4oB3p3G3Vg&amp;list=PLPsx-wWDSTVp-8jnKKMIDfslShxTiTAar&amp;index=18&amp;pp=iAQB)
### [Расчет сверхзвуковой турбулентной струи, истекающей в окружающее пространство. Урок 7](https://www.youtube.com/watch?v=NcsfFKKB5UU&amp;list=PLPsx-wWDSTVp-8jnKKMIDfslShxTiTAar&amp;index=19&amp;pp=iAQB)
