# [Alexander Molchanov](https://www.youtube.com/@alexandermolchanov2171/playlists)
## [ANSYS CFX. Расчет течения в сверхзвуковом сопле](https://www.youtube.com/playlist?list=PLPsx-wWDSTVrIMYcmn9CIOzRrX_oufDPA)
### [ANSYS CFX. Calculation of the flow in a supersonic nozzle. Part 1.](https://www.youtube.com/watch?v=H6oPvJMmt_I&amp;list=PLPsx-wWDSTVrIMYcmn9CIOzRrX_oufDPA&amp;index=1&amp;pp=iAQB)