# [Alexander Molchanov](https://www.youtube.com/@alexandermolchanov2171/playlists)
## [Специальные главы теплофизики и механики сплошной среды](https://www.youtube.com/playlist?list=PLPsx-wWDSTVp-8jnKKMIDfslShxTiTAar)
### [ANSYS CFX. Calculation of the swirling flow between 2 cylinders. Lesson 2](https://www.youtube.com/watch?v=sqdXm8_E77o&amp;list=PLPsx-wWDSTVp-8jnKKMIDfslShxTiTAar&amp;index=5&amp;pp=iAQB)